// Generated for: spectre
// Generated on: Nov  6 20:36:44 2015
// Design library name: cse562
// Design cell name: test_cube
// Design view name: schematic
simulator lang=spectre
global 0 vdd!
