// Generated for: spectre
// Generated on: Nov  6 13:46:57 2015
// Design library name: cse562
// Design cell name: mirror5
// Design view name: schematic
simulator lang=spectre
global 0 vdd!
