// Generated for: spectre
// Generated on: Nov  2 09:33:31 2015
// Design library name: cse562
// Design cell name: cube_test
// Design view name: schematic
simulator lang=spectre
global 0 vdd!
