// Generated for: spectre
// Generated on: Dec 10 20:05:52 2015
// Design library name: cse562
// Design cell name: simple_latch
// Design view name: schematic
simulator lang=spectre
global 0 vdd!
