// Generated for: spectre
// Generated on: Dec 11 05:06:02 2015
// Design library name: cse562
// Design cell name: integrator
// Design view name: schematic
simulator lang=spectre
global 0 vdd!
