// Generated for: spectre
// Generated on: Apr 26 04:48:04 2016
// Design library name: cse463_project
// Design cell name: ALU_test
// Design view name: schematic
simulator lang=spectre
global 0 vdd!
