// Generated for: spectre
// Generated on: Dec 11 12:26:52 2015
// Design library name: cse562
// Design cell name: new_op_amp_test
// Design view name: schematic
simulator lang=spectre
global 0 vdd!
