// Generated for: spectre
// Generated on: Feb  4 15:49:31 2016
// Design library name: cse563
// Design cell name: nmos_threshold
// Design view name: schematic
simulator lang=spectre
global 0
