// Generated for: spectre
// Generated on: Nov  9 15:08:01 2015
// Design library name: cse562
// Design cell name: poly_exper
// Design view name: schematic
simulator lang=spectre
global 0 vdd!
