// Generated for: spectre
// Generated on: Feb 11 13:34:15 2016
// Design library name: cse563
// Design cell name: cmos_inverter_test
// Design view name: schematic
simulator lang=spectre
global 0 vdd!
