// Generated for: spectre
// Generated on: Dec 19 11:44:57 2015
// Design library name: cse562
// Design cell name: delta_sigma
// Design view name: schematic
simulator lang=spectre
global 0 vdd!
