// Generated for: spectre
// Generated on: Nov  6 14:21:33 2015
// Design library name: cse562
// Design cell name: sqrt2
// Design view name: schematic
simulator lang=spectre
global 0 vdd!
