// Generated for: spectre
// Generated on: Dec 11 09:10:25 2015
// Design library name: cse562
// Design cell name: ota
// Design view name: schematic
simulator lang=spectre
global 0 vdd!
