// Generated for: spectre
// Generated on: Apr 26 04:37:08 2016
// Design library name: cse463_project
// Design cell name: 7_1_mux_tgate_test
// Design view name: schematic
simulator lang=spectre
global 0 vdd!
