// Generated for: spectre
// Generated on: Dec 11 02:25:25 2015
// Design library name: cse562
// Design cell name: comparator
// Design view name: schematic
simulator lang=spectre
global 0 vdd!
