// Generated for: spectre
// Generated on: May 11 19:43:00 2016
// Design library name: cse463_project
// Design cell name: drive_bus_test
// Design view name: schematic
simulator lang=spectre
global 0 vdd!
