// Generated for: spectre
// Generated on: Nov  9 15:57:04 2015
// Design library name: cse562
// Design cell name: last_ditch
// Design view name: schematic
simulator lang=spectre
global 0 vdd!
