// Generated for: spectre
// Generated on: Mar 29 13:16:26 2016
// Design library name: 563_final
// Design cell name: bb_inv_test
// Design view name: schematic
simulator lang=spectre
global 0 vdd!
