// Generated for: spectre
// Generated on: Nov  6 13:48:28 2015
// Design library name: cse562
// Design cell name: mirror2
// Design view name: schematic
simulator lang=spectre
global 0 vdd!
