// Generated for: spectre
// Generated on: Dec 11 01:49:16 2015
// Design library name: cse562
// Design cell name: bad_comparator
// Design view name: schematic
simulator lang=spectre
global 0 vdd!
