// Generated for: spectre
// Generated on: Apr 26 05:53:37 2016
// Design library name: cse463_project
// Design cell name: ALU_top_bens_mux_test
// Design view name: schematic
simulator lang=spectre
global 0 vdd!
