// Generated for: spectre
// Generated on: May 10 00:21:49 2016
// Design library name: cse463_project
// Design cell name: bus_test
// Design view name: schematic
simulator lang=spectre
global 0 vdd!
