// Generated for: spectre
// Generated on: May  2 11:50:16 2016
// Design library name: 563_final
// Design cell name: test_543
// Design view name: schematic
simulator lang=spectre
global 0 vdd!
