// Generated for: spectre
// Generated on: Nov  6 10:58:19 2015
// Design library name: cse562
// Design cell name: mirror4
// Design view name: schematic
simulator lang=spectre
global 0 vdd!
