// Generated for: spectre
// Generated on: May 11 04:01:23 2016
// Design library name: cse463_project
// Design cell name: ff_extracted_test
// Design view name: schematic
simulator lang=spectre
global 0 vdd!
