// Generated for: spectre
// Generated on: Apr 14 03:55:56 2016
// Design library name: cse463_project
// Design cell name: 8_bit_reg_v1_test
// Design view name: schematic
simulator lang=spectre
global 0 vdd!
