// Generated for: spectre
// Generated on: Dec 11 07:14:53 2015
// Design library name: cse562
// Design cell name: new_comparator
// Design view name: schematic
simulator lang=spectre
global 0 vdd!
