// Generated for: spectre
// Generated on: Nov  2 14:13:27 2015
// Design library name: cse562
// Design cell name: poly
// Design view name: schematic
simulator lang=spectre
global 0 vdd!
