// Generated for: spectre
// Generated on: Nov  6 16:02:37 2015
// Design library name: cse562
// Design cell name: test_squarer
// Design view name: schematic
simulator lang=spectre
global 0 vdd!
