// Generated for: spectre
// Generated on: Oct  7 23:53:41 2015
// Design library name: cse562
// Design cell name: proj1_opamp_part2
// Design view name: schematic
simulator lang=spectre
global 0 vdd!
