simulator lang=spectre
include "ami06P.scs"
