// Generated for: spectre
// Generated on: Nov  2 11:44:53 2015
// Design library name: cse562
// Design cell name: div2
// Design view name: schematic
simulator lang=spectre
global 0 vdd!
