// Generated for: spectre
// Generated on: Dec 10 22:56:41 2015
// Design library name: cse562
// Design cell name: simple_latch_test
// Design view name: schematic
simulator lang=spectre
global 0 vdd!
