// Generated for: spectre
// Generated on: May 11 04:25:51 2016
// Design library name: cse463_project
// Design cell name: clear_extracted_test
// Design view name: schematic
simulator lang=spectre
global 0 vdd!
